print.prt: written by SWAT+ editor v2.3.0 on 2023-10-17 20:05 for SWAT+ rev.60.5.7
nyskip      day_start  yrc_start  day_end   yrc_end   interval  
1           1          2015       366       2021      1         
aa_int_cnt  
0           
csvout        dbout         cdfout        
n             n             n             
crop_yld      mgtout        hydcon        fdcout        
b             n             n             n             
objects                  daily       monthly        yearly         avann  
basin_wb                     y             n             y             n  
basin_nb                     y             n             y             n  
basin_ls                     y             n             n             n  
basin_pw                     y             n             n             n  
basin_aqu                    n             n             n             n  
basin_res                    y             n             n             n  
basin_cha                    y             n             n             n  
basin_sd_cha                 y             n             n             n  
basin_psc                    y             y             y             y  
region_wb                    n             n             n             n  
region_nb                    n             n             n             n  
region_ls                    n             n             n             n  
region_pw                    n             n             n             n  
region_aqu                   n             n             n             n  
region_res                   n             n             n             n  
region_cha                   y             n             n             n  
region_sd_cha                y             n             n             n  
region_psc                   n             n             n             n  
water_allo                   n             n             y             y  
lsunit_wb                    n             n             n             n  
lsunit_nb                    n             n             n             n  
lsunit_ls                    n             n             n             n  
lsunit_pw                    n             n             n             n  
hru_wb                       y             n             y             n  
hru_nb                       y             n             n             n  
hru_ls                       n             n             n             n  
hru_pw                       y             n             n             n  
hru-lte_wb                   n             n             n             n  
hru-lte_nb                   n             n             n             n  
hru-lte_ls                   n             n             n             n  
hru-lte_pw                   n             n             n             n  
channel                      y             n             n             n  
channel_sd                   y             n             n             n  
aquifer                      n             n             n             n  
reservoir                    y             n             n             n  
recall                       y             n             n             n  
hyd                          n             n             n             n  
ru                           n             n             n             n  
pest                         n             n             n             n  
